@<TRIPOS>MOLECULE
LIG
   70    72     1     0     0
SMALL
resp


@<TRIPOS>ATOM
      1 C1         -6.9100   -0.6380    0.2640 c3        1 LIG      0.091722
      2 C2         -5.6170   -1.8330   -1.3730 c3        1 LIG     -0.126760
      3 C3         -3.2920   -0.3950    0.0200 c         1 LIG      1.003609
      4 C4         -5.5890   -0.5670   -0.4940 c3        1 LIG      0.289600
      5 C5         -1.0210    0.0080    0.8710 c3        1 LIG      0.583942
      6 C6         -0.0860   -0.9550    1.6010 c3        1 LIG      0.245222
      7 C7         -0.9200    1.4600    1.3860 c3        1 LIG     -0.230354
      8 C8         -1.8550    2.3750    0.6350 ca        1 LIG      0.063415
      9 C9         -3.1690    2.5750    1.0730 ca        1 LIG     -0.157753
     10 C10        -1.4420    2.9910   -0.5520 ca        1 LIG     -0.157753
     11 C11        -4.0590    3.3540    0.3330 ca        1 LIG     -0.136054
     12 C12        -2.3260    3.7780   -1.2890 ca        1 LIG     -0.136054
     13 C13        -3.6400    3.9560   -0.8530 ca        1 LIG     -0.135984
     14 C14         1.4040   -0.6990    1.3440 c3        1 LIG     -0.130520
     15 C15         2.0710   -2.4660   -0.3290 c3        1 LIG     -0.455134
     16 C16         3.5430   -2.8860   -0.2720 c3        1 LIG      0.541835
     17 C17         3.9400    0.6110   -0.6210 ca        1 LIG     -0.138865
     18 C18         4.1420    1.4720    0.4610 ca        1 LIG     -0.064510
     19 C19         5.4310    1.7900    0.8580 ca        1 LIG     -0.384945
     20 C20         6.5420    1.2610    0.1720 ca        1 LIG      0.588901
     21 C21         6.3190    0.4180   -0.9340 ca        1 LIG     -0.384945
     22 C22         5.0290    0.0950   -1.3260 ca        1 LIG     -0.064510
     23 C23         4.2200   -2.5020    1.0430 c3        1 LIG     -0.453460
     24 C24         3.6270   -4.3940   -0.5140 c3        1 LIG     -0.453460
     25 C25        -6.9010   -2.5550   -0.9290 c3        1 LIG      0.242548
     26 N1         -2.3800   -0.4950    1.0160 n         1 LIG     -1.007710
     27 N2          1.7720   -1.0550   -0.0280 n3        1 LIG     -0.291087
     28 N3          7.8200    1.5320    0.5980 nh        1 LIG     -0.980530
     29 O1         -4.5380   -0.6300    0.4860 os        1 LIG     -0.494098
     30 O2         -3.0460   -0.1530   -1.1520 o         1 LIG     -0.630962
     31 O3         -0.3700   -0.8380    2.9890 oh        1 LIG     -0.707261
     32 O4          1.4340    1.2870   -0.8020 o         1 LIG     -0.548495
     33 O5          2.3360   -0.4790   -2.3830 o         1 LIG     -0.548495
     34 O6         -7.2100   -2.0220    0.3570 os        1 LIG     -0.424780
     35 S1          2.2950    0.1280   -1.0520 s6        1 LIG      1.025934
     36 H1         -6.8510   -0.2150    1.2680 h1        1 LIG      0.038710
     37 H2         -7.6910   -0.1210   -0.3120 h1        1 LIG      0.038710
     38 H3         -5.6260   -1.5880   -2.4370 hc        1 LIG      0.050098
     39 H4         -4.7280   -2.4330   -1.1680 hc        1 LIG      0.050098
     40 H5         -5.4750    0.3570   -1.0620 h1        1 LIG      0.014202
     41 H6         -0.7800   -0.0170   -0.1960 h1        1 LIG      0.030533
     42 H7         -0.3310   -1.9680    1.2520 h1        1 LIG      0.029072
     43 H8         -1.1580    1.4660    2.4540 hc        1 LIG      0.073490
     44 H9          0.1090    1.8080    1.2610 hc        1 LIG      0.073490
     45 H10        -3.5000    2.1090    1.9990 ha        1 LIG      0.133078
     46 H11        -0.4240    2.8330   -0.9000 ha        1 LIG      0.133078
     47 H12        -5.0770    3.4920    0.6860 ha        1 LIG      0.127479
     48 H13        -1.9910    4.2500   -2.2090 ha        1 LIG      0.127479
     49 H14        -4.3290    4.5650   -1.4300 ha        1 LIG      0.124273
     50 H15         1.6440    0.3480    1.5430 h1        1 LIG      0.092869
     51 H16         1.9900   -1.3030    2.0450 h1        1 LIG      0.092869
     52 H17         1.6600   -2.6990   -1.3150 h1        1 LIG      0.178733
     53 H18         1.4990   -3.0460    0.4060 h1        1 LIG      0.178733
     54 H19         4.0680   -2.3850   -1.0940 hc        1 LIG     -0.035937
     55 H20         3.2950    1.9090    0.9800 ha        1 LIG      0.175738
     56 H21         5.5890    2.4610    1.6960 ha        1 LIG      0.189384
     57 H22         7.1670    0.0230   -1.4860 ha        1 LIG      0.189384
     58 H23         4.8630   -0.5460   -2.1860 ha        1 LIG      0.175738
     59 H24         5.2700   -2.8110    1.0320 hc        1 LIG      0.102347
     60 H25         4.1940   -1.4210    1.2160 hc        1 LIG      0.102347
     61 H26         3.7330   -3.0020    1.8900 hc        1 LIG      0.102347
     62 H27         4.6700   -4.7220   -0.5480 hc        1 LIG      0.102347
     63 H28         3.1260   -4.9420    0.2930 hc        1 LIG      0.102347
     64 H29         3.1510   -4.6740   -1.4600 hc        1 LIG      0.102347
     65 H30        -7.7290   -2.3430   -1.6190 h1        1 LIG     -0.000778
     66 H31        -6.7880   -3.6360   -0.8280 h1        1 LIG     -0.000778
     67 H32        -2.7400   -0.5940    1.9580 hn        1 LIG      0.432469
     68 H33         8.5730    1.3740   -0.0570 hn        1 LIG      0.404687
     69 H34         7.9530    2.3380    1.1920 hn        1 LIG      0.404687
     70 H35        -0.0330   -1.6150    3.4520 ho        1 LIG      0.432081
@<TRIPOS>BOND
     1    1    4 1   
     2    1   34 1   
     3    1   36 1   
     4    1   37 1   
     5    2    4 1   
     6    2   25 1   
     7    2   38 1   
     8    2   39 1   
     9    3   26 1   
    10    3   29 1   
    11    3   30 2   
    12    4   29 1   
    13    4   40 1   
    14    5    6 1   
    15    5    7 1   
    16    5   26 1   
    17    5   41 1   
    18    6   14 1   
    19    6   31 1   
    20    6   42 1   
    21    7    8 1   
    22    7   43 1   
    23    7   44 1   
    24    8    9 ar  
    25    8   10 ar  
    26    9   11 ar  
    27    9   45 1   
    28   10   12 ar  
    29   10   46 1   
    30   11   13 ar  
    31   11   47 1   
    32   12   13 ar  
    33   12   48 1   
    34   13   49 1   
    35   14   27 1   
    36   14   50 1   
    37   14   51 1   
    38   15   16 1   
    39   15   27 1   
    40   15   52 1   
    41   15   53 1   
    42   16   23 1   
    43   16   24 1   
    44   16   54 1   
    45   17   18 ar  
    46   17   22 ar  
    47   17   35 1   
    48   18   19 ar  
    49   18   55 1   
    50   19   20 ar  
    51   19   56 1   
    52   20   21 ar  
    53   20   28 1   
    54   21   22 ar  
    55   21   57 1   
    56   22   58 1   
    57   23   59 1   
    58   23   60 1   
    59   23   61 1   
    60   24   62 1   
    61   24   63 1   
    62   24   64 1   
    63   25   34 1   
    64   25   65 1   
    65   25   66 1   
    66   26   67 1   
    67   27   35 1   
    68   28   68 1   
    69   28   69 1   
    70   31   70 1   
    71   32   35 1   
    72   33   35 1   
@<TRIPOS>SUBSTRUCTURE
     1 LIG         1 TEMP              0 ****  ****    0 ROOT
